/*--------------------------------*- C++ -*----------------------------------*\
| =========                 |                                                 |
| \\      /  F ield         | OpenFOAM: The Open Source CFD Toolbox           |
|  \\    /   O peration     | Version:  2412                                  |
|   \\  /    A nd           | Website:  www.openfoam.com                      |
|    \\/     M anipulation  |                                                 |
\*---------------------------------------------------------------------------*/
FoamFile
{
    version     2.0;
    format      ascii;
    arch        "LSB;label=32;scalar=64";
    class       polyBoundaryMesh;
    location    "constant/polyMesh";
    object      boundary;
}
// * * * * * * * * * * * * * * * * * * * * * * * * * * * * * * * * * * * * * //

5
(
    top
    {
        type            patch;
        nFaces          500;
        startFace       499000;
    }
    bottom
    {
        type            patch;
        nFaces          500;
        startFace       499500;
    }
    left
    {
        type            patch;
        nFaces          500;
        startFace       500000;
    }
    right
    {
        type            patch;
        nFaces          500;
        startFace       500500;
    }
    frontAndBack
    {
        type            empty;
        inGroups        1(empty);
        nFaces          500000;
        startFace       501000;
    }
)

// ************************************************************************* //
